EESchema Schematic File Version 5
LIBS:BlinkerPositionsleuchte-cache
EELAYER 29 0
EELAYER END
$Descr A4 11693 8268
encoding utf-8
Sheet 1 1
Title ""
Date ""
Rev ""
Comp ""
Comment1 ""
Comment2 ""
Comment3 ""
Comment4 ""
$EndDescr
$Comp
L Device:C C1
U 1 1 5CA4B14B
P 2050 2350
F 0 "C1" H 2165 2396 50  0000 L CNN
F 1 "500n" H 2165 2305 50  0000 L CNN
F 2 "" H 2088 2200 50  0001 C CNN
F 3 "~" H 2050 2350 50  0001 C CNN
	1    2050 2350
	1    0    0    -1  
$EndComp
$Comp
L Device:R R1
U 1 1 5CA4B499
P 1800 2350
F 0 "R1" H 1870 2396 50  0000 L CNN
F 1 "2MEG" H 1870 2305 50  0000 L CNN
F 2 "" V 1730 2350 50  0001 C CNN
F 3 "~" H 1800 2350 50  0001 C CNN
	1    1800 2350
	1    0    0    -1  
$EndComp
$Comp
L power:GND #PWR01
U 1 1 5CA4E7FC
P 1800 2750
F 0 "#PWR01" H 1800 2500 50  0001 C CNN
F 1 "GND" H 1805 2577 50  0000 C CNN
F 2 "" H 1800 2750 50  0001 C CNN
F 3 "" H 1800 2750 50  0001 C CNN
	1    1800 2750
	1    0    0    -1  
$EndComp
$Comp
L power:GND #PWR02
U 1 1 5CA4EEFE
P 2050 2750
F 0 "#PWR02" H 2050 2500 50  0001 C CNN
F 1 "GND" H 2055 2577 50  0000 C CNN
F 2 "" H 2050 2750 50  0001 C CNN
F 3 "" H 2050 2750 50  0001 C CNN
	1    2050 2750
	1    0    0    -1  
$EndComp
Wire Wire Line
	2300 2150 2050 2150
Wire Wire Line
	2050 2150 2050 2200
Wire Wire Line
	2050 2150 1800 2150
Wire Wire Line
	1800 2150 1800 2200
Connection ~ 2050 2150
Text GLabel 2050 1600 1    50   Input ~ 0
BL
Wire Wire Line
	2050 1600 2050 2150
Text Notes 900  2600 0    50   ~ 0
.tran 10u 2
$Comp
L Device:Q_PMOS_GDS Q2
U 1 1 5CAFA986
P 3750 2150
F 0 "Q2" H 3956 2104 50  0000 L CNN
F 1 "Q_PMOS_GDS" H 3956 2195 50  0000 L CNN
F 2 "" H 3950 2250 50  0001 C CNN
F 3 "~" H 3750 2150 50  0001 C CNN
	1    3750 2150
	1    0    0    1   
$EndComp
Text GLabel 3850 1800 1    50   Input ~ 0
12V
Wire Wire Line
	3850 1800 3850 1950
Text GLabel 3850 2550 3    50   Input ~ 0
TFL_Out
Wire Wire Line
	3850 2350 3850 2550
$Comp
L Device:D D1
U 1 1 5CB09567
P 2900 2150
F 0 "D1" H 2900 1934 50  0000 C CNN
F 1 "D" H 2900 2025 50  0000 C CNN
F 2 "" H 2900 2150 50  0001 C CNN
F 3 "~" H 2900 2150 50  0001 C CNN
	1    2900 2150
	-1   0    0    1   
$EndComp
$Comp
L Device:R R2
U 1 1 5CB0C071
P 2450 2150
F 0 "R2" V 2243 2150 50  0000 C CNN
F 1 "10k" V 2334 2150 50  0000 C CNN
F 2 "" V 2380 2150 50  0001 C CNN
F 3 "~" H 2450 2150 50  0001 C CNN
	1    2450 2150
	0    1    1    0   
$EndComp
Wire Wire Line
	2600 2150 2750 2150
$Comp
L Device:Q_NMOS_GDS Q1
U 1 1 5CB0CF13
P 3150 2850
F 0 "Q1" H 3356 2896 50  0000 L CNN
F 1 "Q_NMOS_GDS" H 3356 2805 50  0000 L CNN
F 2 "" H 3350 2950 50  0001 C CNN
F 3 "~" H 3150 2850 50  0001 C CNN
	1    3150 2850
	1    0    0    -1  
$EndComp
Wire Wire Line
	3050 2150 3250 2150
Connection ~ 3250 2150
Wire Wire Line
	3250 2150 3550 2150
Text GLabel 2450 2850 0    50   Input ~ 0
BL
Wire Wire Line
	2850 2850 2900 2850
$Comp
L power:GND #PWR03
U 1 1 5CB0E41F
P 3250 3400
F 0 "#PWR03" H 3250 3150 50  0001 C CNN
F 1 "GND" H 3255 3227 50  0000 C CNN
F 2 "" H 3250 3400 50  0001 C CNN
F 3 "" H 3250 3400 50  0001 C CNN
	1    3250 3400
	1    0    0    -1  
$EndComp
Wire Wire Line
	1800 2500 1800 2750
Wire Wire Line
	2050 2500 2050 2750
$Comp
L Device:D_Zener D3
U 1 1 5CAF86CF
P 3250 2450
F 0 "D3" V 3204 2529 50  0000 L CNN
F 1 "7V" V 3295 2529 50  0000 L CNN
F 2 "" H 3250 2450 50  0001 C CNN
F 3 "~" H 3250 2450 50  0001 C CNN
	1    3250 2450
	0    1    1    0   
$EndComp
Wire Wire Line
	3250 2150 3250 2300
Wire Wire Line
	3250 2600 3250 2650
$Comp
L Device:R R3
U 1 1 5CAF8B87
P 2700 2850
F 0 "R3" V 2493 2850 50  0000 C CNN
F 1 "10k" V 2584 2850 50  0000 C CNN
F 2 "" V 2630 2850 50  0001 C CNN
F 3 "~" H 2700 2850 50  0001 C CNN
	1    2700 2850
	0    1    1    0   
$EndComp
Wire Wire Line
	2550 2850 2450 2850
$Comp
L Device:D_Zener D2
U 1 1 5CAF9739
P 2900 3050
F 0 "D2" V 2854 3129 50  0000 L CNN
F 1 "7V" V 2945 3129 50  0000 L CNN
F 2 "" H 2900 3050 50  0001 C CNN
F 3 "~" H 2900 3050 50  0001 C CNN
	1    2900 3050
	0    1    1    0   
$EndComp
Connection ~ 2900 2850
Wire Wire Line
	2900 2850 2950 2850
Wire Wire Line
	2900 2900 2900 2850
Wire Wire Line
	2900 3200 3250 3200
Wire Wire Line
	3250 3200 3250 3400
Wire Wire Line
	3250 3050 3250 3200
Connection ~ 3250 3200
$EndSCHEMATC
